# generated using pymatgen
data_VCrP2(O4F)2
_symmetry_space_group_name_H-M   'P 1'
_cell_length_a   5.10199300
_cell_length_b   5.29158421
_cell_length_c   7.32337979
_cell_angle_alpha   109.46877268
_cell_angle_beta   106.66453518
_cell_angle_gamma   96.42381575
_symmetry_Int_Tables_number   1
_chemical_formula_structural   VCrP2(O4F)2
_chemical_formula_sum   'V1 Cr1 P2 O8 F2'
_cell_volume   173.80563322
_cell_formula_units_Z   1
loop_
 _symmetry_equiv_pos_site_id
 _symmetry_equiv_pos_as_xyz
  1  'x, y, z'
loop_
 _atom_site_type_symbol
 _atom_site_label
 _atom_site_symmetry_multiplicity
 _atom_site_fract_x
 _atom_site_fract_y
 _atom_site_fract_z
 _atom_site_occupancy
  V  V0  1  0.00000000  0.00000000  0.00000000  1
  Cr  Cr1  1  0.00000000  0.00000000  0.50000000  1
  P  P2  1  0.67311000  0.35918000  0.75496000  1
  P  P3  1  0.32689000  0.64082000  0.24504000  1
  O  O4  1  0.35618200  0.22254500  0.91413800  1
  O  O5  1  0.74090100  0.22237000  0.59785000  1
  O  O6  1  0.69217700  0.66259500  0.66802500  1
  O  O7  1  0.12998600  0.69804000  0.11779000  1
  O  O8  1  0.87001400  0.30196000  0.88221000  1
  O  O9  1  0.30782300  0.33740500  0.33197500  1
  O  O10  1  0.25909900  0.77763000  0.40215000  1
  O  O11  1  0.64381800  0.77745500  0.08586200  1
  F  F12  1  0.88673000  0.05370600  0.25614100  1
  F  F13  1  0.11327000  0.94629400  0.74385900  1
